Version 4
SHEET 1 880 680
WIRE 64 -112 -80 -112
WIRE -80 -80 -80 -112
WIRE 176 0 128 0
WIRE 288 0 256 0
WIRE -80 16 -80 0
WIRE -80 64 -176 64
WIRE 176 64 -80 64
WIRE -176 112 -176 64
WIRE 176 112 176 64
WIRE 64 128 64 -112
WIRE 144 128 64 128
WIRE 288 144 288 0
WIRE 288 144 208 144
WIRE 352 144 352 112
WIRE 352 144 288 144
WIRE -80 160 -80 144
WIRE 128 160 128 0
WIRE 128 160 -80 160
WIRE 144 160 128 160
WIRE -176 240 -176 192
WIRE -80 240 -176 240
WIRE 16 240 -80 240
WIRE 176 240 176 176
WIRE 176 240 16 240
WIRE 16 256 16 240
FLAG 352 112 vout
FLAG -80 16 0
FLAG 16 256 0
SYMBOL Opamps\\LT1007 176 80 R0
SYMATTR InstName U1
SYMBOL voltage -176 96 R0
WINDOW 123 0 0 Left 2
WINDOW 39 0 0 Left 2
SYMATTR InstName V1
SYMATTR Value 5V
SYMBOL res -96 48 R0
SYMATTR InstName R1
SYMATTR Value 10K
SYMBOL res -96 144 R0
SYMATTR InstName R2
SYMATTR Value 10K
SYMBOL res 272 -16 R90
WINDOW 0 0 56 VBottom 2
WINDOW 3 32 56 VTop 2
SYMATTR InstName R3
SYMATTR Value 10K
SYMBOL voltage -80 -96 M0
WINDOW 123 0 0 Left 2
WINDOW 39 0 0 Left 2
SYMATTR InstName V2
SYMATTR Value SINE(2.5 2.5 50)
TEXT -306 280 Left 2 !.tran .1
